/*--------------------------------*- C++ -*----------------------------------*\
  =========                 |
  \\      /  F ield         | OpenFOAM: The Open Source CFD Toolbox
   \\    /   O peration     | Website:  https://openfoam.org
    \\  /    A nd           | Version:  6
     \\/     M anipulation  |
\*---------------------------------------------------------------------------*/
FoamFile
{
    version     2.0;
    format      ascii;
    class       dictionary;
    location    "constant";
    object      thermophysicalProperties;
}
// * * * * * * * * * * * * * * * * * * * * * * * * * * * * * * * * * * * * * //

thermoType
{
    type            hePsiThermo;
    mixture         reactingMixture;
    transport       sutherland;
    thermo          janaf;
    energy          sensibleEnthalpy;
    equationOfState perfectGas;
    specie          specie;
}

inertSpecie N2;

chemistryReader chemkinReader;

CHEMKINFile "$FOAM_CASE/mechanisms/SK17_OH_mech.dat"; //change to your own chemistry
CHEMKINThermoFile "$FOAM_CASE/mechanisms/SK17_OH_thermo.dat"; //change to your own chemistry
CHEMKINTransportFile "$FOAM_CASE/mechanisms/SK17_OH_tran.dat" ;//change to your own chemistry


// ************************************************************************* //
